Version 4.1
SHEET 1 1220 680
WIRE -384 -240 -480 -240
WIRE 256 -208 96 -208
WIRE 432 -208 336 -208
WIRE -480 -192 -480 -240
WIRE 256 -128 208 -128
WIRE -480 -96 -480 -112
WIRE 208 -96 208 -128
WIRE -240 -80 -288 -80
WIRE -128 -80 -160 -80
WIRE 96 -80 96 -208
WIRE 96 -80 -48 -80
WIRE 176 -80 96 -80
WIRE -288 -64 -288 -80
WIRE 432 -64 432 -208
WIRE 432 -64 240 -64
WIRE 592 -64 432 -64
WIRE 784 -64 672 -64
WIRE 960 -64 784 -64
WIRE 176 -48 144 -48
WIRE 208 -16 208 -32
WIRE 784 0 784 -64
WIRE 784 0 736 0
WIRE 848 0 784 0
WIRE 736 32 736 0
WIRE 848 32 848 0
WIRE 144 64 144 -48
WIRE 400 64 144 64
WIRE 848 112 848 96
WIRE 736 128 736 96
WIRE 736 128 704 128
WIRE -240 160 -288 160
WIRE -240 192 -240 160
WIRE 368 192 80 192
WIRE 208 224 144 224
WIRE 144 256 144 224
WIRE 80 272 80 192
WIRE 112 272 80 272
WIRE 368 288 176 288
WIRE 368 288 368 192
WIRE 400 288 400 64
WIRE 400 288 368 288
WIRE -240 304 -240 272
WIRE 32 304 -240 304
WIRE 112 304 32 304
WIRE 32 336 32 304
WIRE 144 336 144 320
WIRE -240 384 -240 304
WIRE 32 416 32 400
WIRE -240 512 -240 464
FLAG -384 -240 Vcc
IOPIN -384 -240 BiDir
FLAG -480 -96 0
FLAG 256 -128 Vcc
IOPIN 256 -128 BiDir
FLAG 208 224 Vcc
IOPIN 208 224 BiDir
FLAG 208 -16 0
FLAG 144 336 0
FLAG -240 512 0
FLAG -288 160 Vcc
IOPIN -288 160 BiDir
FLAG 32 416 0
FLAG -288 -64 0
FLAG 848 112 0
FLAG 704 128 Vcc
IOPIN 704 128 BiDir
SYMBOL voltage -480 -208 R0
WINDOW 0 24 16 Left 1
WINDOW 3 24 96 Left 0
WINDOW 123 0 0 Left 0
WINDOW 39 0 0 Left 0
SYMATTR InstName V1
SYMATTR Value 3.3
SYMBOL res -256 176 R0
WINDOW 0 36 40 Left 1
WINDOW 3 36 76 Left 0
SYMATTR InstName R1
SYMATTR Value 20K
SYMBOL res -256 368 R0
WINDOW 0 36 40 Left 1
WINDOW 3 36 76 Left 0
SYMATTR InstName R2
SYMATTR Value 12K
SYMBOL cap 16 336 R0
WINDOW 0 24 8 Left 1
WINDOW 3 24 56 Left 0
SYMATTR InstName C1
SYMATTR Value 100n
SYMBOL voltage -144 -80 R90
WINDOW 0 -32 56 VBottom 1
WINDOW 3 32 56 VTop 0
WINDOW 123 0 0 Left 0
WINDOW 39 0 0 Left 0
SYMATTR InstName V2
SYMATTR Value SINE(0 5 50 0 0 0)
SYMBOL res 352 -224 R90
WINDOW 0 0 56 VBottom 1
WINDOW 3 32 56 VTop 0
SYMATTR InstName R4
SYMATTR Value 33k
SYMBOL res -32 -96 R90
WINDOW 0 0 56 VBottom 1
WINDOW 3 32 56 VTop 0
SYMATTR InstName R3
SYMATTR Value 100K
SYMBOL res 688 -80 R90
WINDOW 0 0 56 VBottom 1
WINDOW 3 32 56 VTop 0
SYMATTR InstName R5
SYMATTR Value 1K
SYMBOL Contrib\\Toshiba\\diode\\TBAT54 720 32 R0
WINDOW 0 24 0 Left 1
WINDOW 3 24 64 Left 0
SYMATTR InstName U3
SYMBOL Contrib\\Toshiba\\diode\\TBAT54 864 96 R180
WINDOW 0 24 64 Left 1
WINDOW 3 24 0 Left 0
SYMATTR InstName U4
SYMBOL OpAmps\\LT6003 208 -64 R0
SYMATTR InstName U5
SYMBOL OpAmps\\LT1498 144 224 R0
SYMATTR InstName U1
TEXT -368 304 Left 0 ;(1.24V)voltage divider->
TEXT 168 304 Left 0 ;1.24 V anchor
TEXT 32 288 Left 0 ;voltage follower
TEXT 16 -88 Left 0 ;5V in
TEXT 344 -72 Left 0 ;5x0.16=0.8V
TEXT 752 -80 Left 0 ;ADC input protection
TEXT 896 -312 Left 2 !.tran 0 200m 0 20u
